**DIRAC
.WAVE FUNCTION
.ANALYZE
**HAMILTONIAN
#.NONREL
.ECP
*AMFI
.AMFICH
+20
**INTEGRALS
*READIN
.UNCONTRACT
**WAVE FUNCTION
.RESOLVE
.SCF
*SCF
.CLOSED SHELL
2 6
.OPEN SHELL
1
7/0,14
.EVCCNV
1.0d-05
**ANALYZE
.PRIVEC
.MULPOP
*PRIVEC
.AOLAB
.VECPRI
all
all
.PRINT
 1
*MULPOP
.AOLAB
.VECPOP
all
all
.PRINT
 1
**GENERAL
.PCMOUT
*END OF

&GOSCIP IPRNT=5 &END
