**DIRAC
.WAVE FUNCTION
**HAMILTONIAN
#.NONREL
.ECP
*AMFI
.AMFICH
+20
**INTEGRALS
*READIN
.UNCONTRACT
**WAVE FUNCTION
.RESOLVE
.SCF
!.REORDER
!1,7,2,3,4,5,6
!
*SCF
.CLOSED SHELL
2 6
.OPEN SHELL
1
9/0,14
.EVCCNV
1.0d-06
.OVLSEL
.NODYNSEL
**GENERAL
.PCMOUT
*END OF

&GOSCIP IPRNT=5 &END
&POPAN THRESH=2.0 &END

