**DIRAC
.WAVE FUNCTION
.ANALYZE
**HAMILTONIAN
#.NONREL
#.ECP
.X2C
*AMFI
.AMFICH
+20
**INTEGRALS
*READIN
.UNCONTRACT
**WAVE FUNCTION
.RESOLVE
.SCF
.REORDER
1..15,21,16,17,18,19,20

*SCF
.CLOSED SHELL
30 24
.OPEN SHELL
1
9/0,14
.EVCCNV
1.0d-06
.OVLSEL
.NODYNSEL
.MAXITR
100
.LSHIFT
0.5
.MXDIIS
20
**ANALYZE
.PRIVEC
.MULPOP
*PRIVEC
.AOLAB
.VECPRI
all
all
.PRINT
 1
*MULPOP
.AOLAB
.VECPOP
all
all
.PRINT
 1
**GENERAL
.PCMOUT
*END OF

&GOSCIP IPRNT=5 &END
