**DIRAC
.WAVE FUNCTION
.ANALYZE
**HAMILTONIAN
.NONREL
#.ECP
#.X2C
**INTEGRALS
*READIN
.UNCONTRACT
**WAVE FUNCTION
.RESOLVE
.SCF
*SCF
.CLOSED SHELL
30 24
.EVCCNV
2.0d-08
**ANALYZE
.PRIVEC
.MULPOP
*PRIVEC
.AOLAB
.VECPRI
all
all
.PRINT
 1
*MULPOP
.AOLAB
.VECPOP
all
all
.PRINT
 1
**GENERAL
.PCMOUT 
*END OF

&GOSCIP IPRNT=5 &END

